<?xml version="1.0" encoding="UTF-8" standalone="yes"?>
<template encoding-version="1.2">
    <description></description>
    <groupId>7c84501d-d10c-407c-b9f3-1d80e38fe36a</groupId>
    <name>Risk Data Flow</name>
    <snippet>
        <processGroups>
            <id>ad5109e0-5195-3693-0000-000000000000</id>
            <parentGroupId>46f95fe5-3024-31d8-0000-000000000000</parentGroupId>
            <position>
                <x>0.0</x>
                <y>0.0</y>
            </position>
            <comments></comments>
            <contents>
                <processGroups>
                    <id>135e3d87-721d-3b4e-0000-000000000000</id>
                    <parentGroupId>ad5109e0-5195-3693-0000-000000000000</parentGroupId>
                    <position>
                        <x>731.4600151909722</x>
                        <y>372.21329922146265</y>
                    </position>
                    <comments></comments>
                    <contents>
                        <connections>
                            <id>00324395-aebe-309e-0000-000000000000</id>
                            <parentGroupId>135e3d87-721d-3b4e-0000-000000000000</parentGroupId>
                            <backPressureDataSizeThreshold>1 GB</backPressureDataSizeThreshold>
                            <backPressureObjectThreshold>10000</backPressureObjectThreshold>
                            <destination>
<groupId>135e3d87-721d-3b4e-0000-000000000000</groupId>
<id>b2f64440-abeb-396a-0000-000000000000</id>
<type>PROCESSOR</type>
                            </destination>
                            <flowFileExpiration>0 sec</flowFileExpiration>
                            <labelIndex>1</labelIndex>
                            <loadBalanceCompression>DO_NOT_COMPRESS</loadBalanceCompression>
                            <loadBalancePartitionAttribute></loadBalancePartitionAttribute>
                            <loadBalanceStatus>LOAD_BALANCE_NOT_CONFIGURED</loadBalanceStatus>
                            <loadBalanceStrategy>DO_NOT_LOAD_BALANCE</loadBalanceStrategy>
                            <name>Other files</name>
                            <selectedRelationships>unmatched</selectedRelationships>
                            <source>
<groupId>135e3d87-721d-3b4e-0000-000000000000</groupId>
<id>6d00693b-a6b9-37e6-0000-000000000000</id>
<type>PROCESSOR</type>
                            </source>
                            <zIndex>0</zIndex>
                        </connections>
                        <connections>
                            <id>c18f25ca-5d29-361c-0000-000000000000</id>
                            <parentGroupId>135e3d87-721d-3b4e-0000-000000000000</parentGroupId>
                            <backPressureDataSizeThreshold>1 GB</backPressureDataSizeThreshold>
                            <backPressureObjectThreshold>10000</backPressureObjectThreshold>
                            <destination>
<groupId>135e3d87-721d-3b4e-0000-000000000000</groupId>
<id>3fe320e6-1fdc-39b7-0000-000000000000</id>
<type>PROCESSOR</type>
                            </destination>
                            <flowFileExpiration>0 sec</flowFileExpiration>
                            <labelIndex>1</labelIndex>
                            <loadBalanceCompression>DO_NOT_COMPRESS</loadBalanceCompression>
                            <loadBalancePartitionAttribute></loadBalancePartitionAttribute>
                            <loadBalanceStatus>LOAD_BALANCE_NOT_CONFIGURED</loadBalanceStatus>
                            <loadBalanceStrategy>DO_NOT_LOAD_BALANCE</loadBalanceStrategy>
                            <name></name>
                            <selectedRelationships>IsTransactionData</selectedRelationships>
                            <source>
<groupId>135e3d87-721d-3b4e-0000-000000000000</groupId>
<id>6d00693b-a6b9-37e6-0000-000000000000</id>
<type>PROCESSOR</type>
                            </source>
                            <zIndex>0</zIndex>
                        </connections>
                        <connections>
                            <id>e1de987b-4195-3473-0000-000000000000</id>
                            <parentGroupId>135e3d87-721d-3b4e-0000-000000000000</parentGroupId>
                            <backPressureDataSizeThreshold>1 GB</backPressureDataSizeThreshold>
                            <backPressureObjectThreshold>10000</backPressureObjectThreshold>
                            <destination>
<groupId>135e3d87-721d-3b4e-0000-000000000000</groupId>
<id>6d00693b-a6b9-37e6-0000-000000000000</id>
<type>PROCESSOR</type>
                            </destination>
                            <flowFileExpiration>0 sec</flowFileExpiration>
                            <labelIndex>1</labelIndex>
                            <loadBalanceCompression>DO_NOT_COMPRESS</loadBalanceCompression>
                            <loadBalancePartitionAttribute></loadBalancePartitionAttribute>
                            <loadBalanceStatus>LOAD_BALANCE_NOT_CONFIGURED</loadBalanceStatus>
                            <loadBalanceStrategy>DO_NOT_LOAD_BALANCE</loadBalanceStrategy>
                            <name></name>
                            <selectedRelationships>success</selectedRelationships>
                            <source>
<groupId>135e3d87-721d-3b4e-0000-000000000000</groupId>
<id>4d6c235a-df79-34da-0000-000000000000</id>
<type>PROCESSOR</type>
                            </source>
                            <zIndex>0</zIndex>
                        </connections>
                        <processors>
                            <id>3fe320e6-1fdc-39b7-0000-000000000000</id>
                            <parentGroupId>135e3d87-721d-3b4e-0000-000000000000</parentGroupId>
                            <position>
<x>798.3996378580728</x>
<y>448.8541734483506</y>
                            </position>
                            <bundle>
<artifact>nifi-hadoop-nar</artifact>
<group>org.apache.nifi</group>
<version>1.9.0.3.4.0.0-155</version>
                            </bundle>
                            <config>
<bulletinLevel>WARN</bulletinLevel>
<comments></comments>
<concurrentlySchedulableTaskCount>1</concurrentlySchedulableTaskCount>
<descriptors>
    <entry>
        <key>Hadoop Configuration Resources</key>
        <value>
            <name>Hadoop Configuration Resources</name>
        </value>
    </entry>
    <entry>
        <key>kerberos-credentials-service</key>
        <value>
            <identifiesControllerService>org.apache.nifi.kerberos.KerberosCredentialsService</identifiesControllerService>
            <name>kerberos-credentials-service</name>
        </value>
    </entry>
    <entry>
        <key>Kerberos Principal</key>
        <value>
            <name>Kerberos Principal</name>
        </value>
    </entry>
    <entry>
        <key>Kerberos Keytab</key>
        <value>
            <name>Kerberos Keytab</name>
        </value>
    </entry>
    <entry>
        <key>Kerberos Relogin Period</key>
        <value>
            <name>Kerberos Relogin Period</name>
        </value>
    </entry>
    <entry>
        <key>Additional Classpath Resources</key>
        <value>
            <name>Additional Classpath Resources</name>
        </value>
    </entry>
    <entry>
        <key>Directory</key>
        <value>
            <name>Directory</name>
        </value>
    </entry>
    <entry>
        <key>Conflict Resolution Strategy</key>
        <value>
            <name>Conflict Resolution Strategy</name>
        </value>
    </entry>
    <entry>
        <key>Block Size</key>
        <value>
            <name>Block Size</name>
        </value>
    </entry>
    <entry>
        <key>IO Buffer Size</key>
        <value>
            <name>IO Buffer Size</name>
        </value>
    </entry>
    <entry>
        <key>Replication</key>
        <value>
            <name>Replication</name>
        </value>
    </entry>
    <entry>
        <key>Permissions umask</key>
        <value>
            <name>Permissions umask</name>
        </value>
    </entry>
    <entry>
        <key>Remote Owner</key>
        <value>
            <name>Remote Owner</name>
        </value>
    </entry>
    <entry>
        <key>Remote Group</key>
        <value>
            <name>Remote Group</name>
        </value>
    </entry>
    <entry>
        <key>Compression codec</key>
        <value>
            <name>Compression codec</name>
        </value>
    </entry>
</descriptors>
<executionNode>ALL</executionNode>
<lossTolerant>false</lossTolerant>
<penaltyDuration>30 sec</penaltyDuration>
<properties>
    <entry>
        <key>Hadoop Configuration Resources</key>
        <value>/etc/hadoop/conf/core-site.xml</value>
    </entry>
    <entry>
        <key>kerberos-credentials-service</key>
    </entry>
    <entry>
        <key>Kerberos Principal</key>
    </entry>
    <entry>
        <key>Kerberos Keytab</key>
    </entry>
    <entry>
        <key>Kerberos Relogin Period</key>
        <value>4 hours</value>
    </entry>
    <entry>
        <key>Additional Classpath Resources</key>
    </entry>
    <entry>
        <key>Directory</key>
        <value>/tmp/dropzone</value>
    </entry>
    <entry>
        <key>Conflict Resolution Strategy</key>
        <value>replace</value>
    </entry>
    <entry>
        <key>Block Size</key>
    </entry>
    <entry>
        <key>IO Buffer Size</key>
    </entry>
    <entry>
        <key>Replication</key>
    </entry>
    <entry>
        <key>Permissions umask</key>
    </entry>
    <entry>
        <key>Remote Owner</key>
    </entry>
    <entry>
        <key>Remote Group</key>
    </entry>
    <entry>
        <key>Compression codec</key>
        <value>NONE</value>
    </entry>
</properties>
<runDurationMillis>0</runDurationMillis>
<schedulingPeriod>0 sec</schedulingPeriod>
<schedulingStrategy>TIMER_DRIVEN</schedulingStrategy>
<yieldDuration>1 sec</yieldDuration>
                            </config>
                            <executionNodeRestricted>false</executionNodeRestricted>
                            <name>Store in data lake</name>
                            <relationships>
<autoTerminate>true</autoTerminate>
<name>failure</name>
                            </relationships>
                            <relationships>
<autoTerminate>true</autoTerminate>
<name>success</name>
                            </relationships>
                            <state>STOPPED</state>
                            <style/>
                            <type>org.apache.nifi.processors.hadoop.PutHDFS</type>
                        </processors>
                        <processors>
                            <id>4d6c235a-df79-34da-0000-000000000000</id>
                            <parentGroupId>135e3d87-721d-3b4e-0000-000000000000</parentGroupId>
                            <position>
<x>798.007100423177</x>
<y>62.70596822102863</y>
                            </position>
                            <bundle>
<artifact>nifi-hadoop-nar</artifact>
<group>org.apache.nifi</group>
<version>1.9.0.3.4.0.0-155</version>
                            </bundle>
                            <config>
<bulletinLevel>WARN</bulletinLevel>
<comments></comments>
<concurrentlySchedulableTaskCount>1</concurrentlySchedulableTaskCount>
<descriptors>
    <entry>
        <key>Hadoop Configuration Resources</key>
        <value>
            <name>Hadoop Configuration Resources</name>
        </value>
    </entry>
    <entry>
        <key>kerberos-credentials-service</key>
        <value>
            <identifiesControllerService>org.apache.nifi.kerberos.KerberosCredentialsService</identifiesControllerService>
            <name>kerberos-credentials-service</name>
        </value>
    </entry>
    <entry>
        <key>Kerberos Principal</key>
        <value>
            <name>Kerberos Principal</name>
        </value>
    </entry>
    <entry>
        <key>Kerberos Keytab</key>
        <value>
            <name>Kerberos Keytab</name>
        </value>
    </entry>
    <entry>
        <key>Kerberos Relogin Period</key>
        <value>
            <name>Kerberos Relogin Period</name>
        </value>
    </entry>
    <entry>
        <key>Additional Classpath Resources</key>
        <value>
            <name>Additional Classpath Resources</name>
        </value>
    </entry>
    <entry>
        <key>Directory</key>
        <value>
            <name>Directory</name>
        </value>
    </entry>
    <entry>
        <key>Recurse Subdirectories</key>
        <value>
            <name>Recurse Subdirectories</name>
        </value>
    </entry>
    <entry>
        <key>Keep Source File</key>
        <value>
            <name>Keep Source File</name>
        </value>
    </entry>
    <entry>
        <key>File Filter Regex</key>
        <value>
            <name>File Filter Regex</name>
        </value>
    </entry>
    <entry>
        <key>Filter Match Name Only</key>
        <value>
            <name>Filter Match Name Only</name>
        </value>
    </entry>
    <entry>
        <key>Ignore Dotted Files</key>
        <value>
            <name>Ignore Dotted Files</name>
        </value>
    </entry>
    <entry>
        <key>Minimum File Age</key>
        <value>
            <name>Minimum File Age</name>
        </value>
    </entry>
    <entry>
        <key>Maximum File Age</key>
        <value>
            <name>Maximum File Age</name>
        </value>
    </entry>
    <entry>
        <key>Polling Interval</key>
        <value>
            <name>Polling Interval</name>
        </value>
    </entry>
    <entry>
        <key>Batch Size</key>
        <value>
            <name>Batch Size</name>
        </value>
    </entry>
    <entry>
        <key>IO Buffer Size</key>
        <value>
            <name>IO Buffer Size</name>
        </value>
    </entry>
    <entry>
        <key>Compression codec</key>
        <value>
            <name>Compression codec</name>
        </value>
    </entry>
</descriptors>
<executionNode>PRIMARY</executionNode>
<lossTolerant>false</lossTolerant>
<penaltyDuration>30 sec</penaltyDuration>
<properties>
    <entry>
        <key>Hadoop Configuration Resources</key>
        <value>/etc/hadoop/conf/core-site.xml</value>
    </entry>
    <entry>
        <key>kerberos-credentials-service</key>
    </entry>
    <entry>
        <key>Kerberos Principal</key>
    </entry>
    <entry>
        <key>Kerberos Keytab</key>
    </entry>
    <entry>
        <key>Kerberos Relogin Period</key>
        <value>4 hours</value>
    </entry>
    <entry>
        <key>Additional Classpath Resources</key>
    </entry>
    <entry>
        <key>Directory</key>
        <value>/tmp/demo/input</value>
    </entry>
    <entry>
        <key>Recurse Subdirectories</key>
        <value>true</value>
    </entry>
    <entry>
        <key>Keep Source File</key>
        <value>false</value>
    </entry>
    <entry>
        <key>File Filter Regex</key>
    </entry>
    <entry>
        <key>Filter Match Name Only</key>
        <value>true</value>
    </entry>
    <entry>
        <key>Ignore Dotted Files</key>
        <value>true</value>
    </entry>
    <entry>
        <key>Minimum File Age</key>
        <value>0 sec</value>
    </entry>
    <entry>
        <key>Maximum File Age</key>
    </entry>
    <entry>
        <key>Polling Interval</key>
        <value>0 sec</value>
    </entry>
    <entry>
        <key>Batch Size</key>
        <value>100</value>
    </entry>
    <entry>
        <key>IO Buffer Size</key>
    </entry>
    <entry>
        <key>Compression codec</key>
        <value>NONE</value>
    </entry>
</properties>
<runDurationMillis>0</runDurationMillis>
<schedulingPeriod>0 sec</schedulingPeriod>
<schedulingStrategy>TIMER_DRIVEN</schedulingStrategy>
<yieldDuration>1 sec</yieldDuration>
                            </config>
                            <executionNodeRestricted>false</executionNodeRestricted>
                            <name>Load creditcard log</name>
                            <relationships>
<autoTerminate>false</autoTerminate>
<name>success</name>
                            </relationships>
                            <state>STOPPED</state>
                            <style/>
                            <type>org.apache.nifi.processors.hadoop.GetHDFS</type>
                        </processors>
                        <processors>
                            <id>6d00693b-a6b9-37e6-0000-000000000000</id>
                            <parentGroupId>135e3d87-721d-3b4e-0000-000000000000</parentGroupId>
                            <position>
<x>795.6801554361978</x>
<y>256.1805657280816</y>
                            </position>
                            <bundle>
<artifact>nifi-standard-nar</artifact>
<group>org.apache.nifi</group>
<version>1.9.0.3.4.0.0-155</version>
                            </bundle>
                            <config>
<bulletinLevel>WARN</bulletinLevel>
<comments></comments>
<concurrentlySchedulableTaskCount>1</concurrentlySchedulableTaskCount>
<descriptors>
    <entry>
        <key>Routing Strategy</key>
        <value>
            <name>Routing Strategy</name>
        </value>
    </entry>
    <entry>
        <key>IsTransactionData</key>
        <value>
            <name>IsTransactionData</name>
        </value>
    </entry>
</descriptors>
<executionNode>ALL</executionNode>
<lossTolerant>false</lossTolerant>
<penaltyDuration>30 sec</penaltyDuration>
<properties>
    <entry>
        <key>Routing Strategy</key>
        <value>Route to Property name</value>
    </entry>
    <entry>
        <key>IsTransactionData</key>
        <value>${filename:contains(".csv")}</value>
    </entry>
</properties>
<runDurationMillis>0</runDurationMillis>
<schedulingPeriod>0 sec</schedulingPeriod>
<schedulingStrategy>TIMER_DRIVEN</schedulingStrategy>
<yieldDuration>1 sec</yieldDuration>
                            </config>
                            <executionNodeRestricted>false</executionNodeRestricted>
                            <name>Only keep relevant files</name>
                            <relationships>
<autoTerminate>false</autoTerminate>
<name>IsTransactionData</name>
                            </relationships>
                            <relationships>
<autoTerminate>false</autoTerminate>
<name>unmatched</name>
                            </relationships>
                            <state>STOPPED</state>
                            <style/>
                            <type>org.apache.nifi.processors.standard.RouteOnAttribute</type>
                        </processors>
                        <processors>
                            <id>b2f64440-abeb-396a-0000-000000000000</id>
                            <parentGroupId>135e3d87-721d-3b4e-0000-000000000000</parentGroupId>
                            <position>
<x>1444.90387641059</x>
<y>262.03238762749567</y>
                            </position>
                            <bundle>
<artifact>nifi-standard-nar</artifact>
<group>org.apache.nifi</group>
<version>1.9.0.3.4.0.0-155</version>
                            </bundle>
                            <config>
<bulletinLevel>WARN</bulletinLevel>
<comments></comments>
<concurrentlySchedulableTaskCount>1</concurrentlySchedulableTaskCount>
<descriptors>
    <entry>
        <key>Directory</key>
        <value>
            <name>Directory</name>
        </value>
    </entry>
    <entry>
        <key>Conflict Resolution Strategy</key>
        <value>
            <name>Conflict Resolution Strategy</name>
        </value>
    </entry>
    <entry>
        <key>Create Missing Directories</key>
        <value>
            <name>Create Missing Directories</name>
        </value>
    </entry>
    <entry>
        <key>Maximum File Count</key>
        <value>
            <name>Maximum File Count</name>
        </value>
    </entry>
    <entry>
        <key>Last Modified Time</key>
        <value>
            <name>Last Modified Time</name>
        </value>
    </entry>
    <entry>
        <key>Permissions</key>
        <value>
            <name>Permissions</name>
        </value>
    </entry>
    <entry>
        <key>Owner</key>
        <value>
            <name>Owner</name>
        </value>
    </entry>
    <entry>
        <key>Group</key>
        <value>
            <name>Group</name>
        </value>
    </entry>
</descriptors>
<executionNode>ALL</executionNode>
<lossTolerant>false</lossTolerant>
<penaltyDuration>30 sec</penaltyDuration>
<properties>
    <entry>
        <key>Directory</key>
        <value>/tmp/temporary</value>
    </entry>
    <entry>
        <key>Conflict Resolution Strategy</key>
        <value>fail</value>
    </entry>
    <entry>
        <key>Create Missing Directories</key>
        <value>true</value>
    </entry>
    <entry>
        <key>Maximum File Count</key>
    </entry>
    <entry>
        <key>Last Modified Time</key>
    </entry>
    <entry>
        <key>Permissions</key>
    </entry>
    <entry>
        <key>Owner</key>
    </entry>
    <entry>
        <key>Group</key>
    </entry>
</properties>
<runDurationMillis>0</runDurationMillis>
<schedulingPeriod>0 sec</schedulingPeriod>
<schedulingStrategy>TIMER_DRIVEN</schedulingStrategy>
<yieldDuration>1 sec</yieldDuration>
                            </config>
                            <executionNodeRestricted>false</executionNodeRestricted>
                            <name>Move to temporary storage</name>
                            <relationships>
<autoTerminate>true</autoTerminate>
<name>failure</name>
                            </relationships>
                            <relationships>
<autoTerminate>true</autoTerminate>
<name>success</name>
                            </relationships>
                            <state>STOPPED</state>
                            <style/>
                            <type>org.apache.nifi.processors.standard.PutFile</type>
                        </processors>
                    </contents>
                    <name>Ingest Creditcard Logs</name>
                    <variables/>
                </processGroups>
                <processGroups>
                    <id>41a65e93-00f0-378f-0000-000000000000</id>
                    <parentGroupId>ad5109e0-5195-3693-0000-000000000000</parentGroupId>
                    <position>
                        <x>730.2449679904514</x>
                        <y>78.34591420491537</y>
                    </position>
                    <comments></comments>
                    <contents>
                        <connections>
                            <id>004beefc-3622-366e-0000-000000000000</id>
                            <parentGroupId>41a65e93-00f0-378f-0000-000000000000</parentGroupId>
                            <backPressureDataSizeThreshold>1 GB</backPressureDataSizeThreshold>
                            <backPressureObjectThreshold>10000</backPressureObjectThreshold>
                            <destination>
<groupId>41a65e93-00f0-378f-0000-000000000000</groupId>
<id>51b8fa93-5586-3192-0000-000000000000</id>
<type>PROCESSOR</type>
                            </destination>
                            <flowFileExpiration>0 sec</flowFileExpiration>
                            <labelIndex>1</labelIndex>
                            <loadBalanceCompression>DO_NOT_COMPRESS</loadBalanceCompression>
                            <loadBalancePartitionAttribute></loadBalancePartitionAttribute>
                            <loadBalanceStatus>LOAD_BALANCE_NOT_CONFIGURED</loadBalanceStatus>
                            <loadBalanceStrategy>DO_NOT_LOAD_BALANCE</loadBalanceStrategy>
                            <name></name>
                            <selectedRelationships>Response</selectedRelationships>
                            <source>
<groupId>41a65e93-00f0-378f-0000-000000000000</groupId>
<id>6c090f4f-32e7-3c3b-0000-000000000000</id>
<type>PROCESSOR</type>
                            </source>
                            <zIndex>0</zIndex>
                        </connections>
                        <connections>
                            <id>4e0ab92b-d7ca-322d-0000-000000000000</id>
                            <parentGroupId>41a65e93-00f0-378f-0000-000000000000</parentGroupId>
                            <backPressureDataSizeThreshold>1 GB</backPressureDataSizeThreshold>
                            <backPressureObjectThreshold>10000</backPressureObjectThreshold>
                            <destination>
<groupId>41a65e93-00f0-378f-0000-000000000000</groupId>
<id>83ae0e63-9ddb-33ed-0000-000000000000</id>
<type>PROCESSOR</type>
                            </destination>
                            <flowFileExpiration>0 sec</flowFileExpiration>
                            <labelIndex>1</labelIndex>
                            <loadBalanceCompression>DO_NOT_COMPRESS</loadBalanceCompression>
                            <loadBalancePartitionAttribute></loadBalancePartitionAttribute>
                            <loadBalanceStatus>LOAD_BALANCE_NOT_CONFIGURED</loadBalanceStatus>
                            <loadBalanceStrategy>DO_NOT_LOAD_BALANCE</loadBalanceStrategy>
                            <name>Regular Transaction</name>
                            <selectedRelationships>unmatched</selectedRelationships>
                            <source>
<groupId>41a65e93-00f0-378f-0000-000000000000</groupId>
<id>51b8fa93-5586-3192-0000-000000000000</id>
<type>PROCESSOR</type>
                            </source>
                            <zIndex>0</zIndex>
                        </connections>
                        <connections>
                            <id>93b91980-ae48-34b0-0000-000000000000</id>
                            <parentGroupId>41a65e93-00f0-378f-0000-000000000000</parentGroupId>
                            <backPressureDataSizeThreshold>1 GB</backPressureDataSizeThreshold>
                            <backPressureObjectThreshold>10000</backPressureObjectThreshold>
                            <destination>
<groupId>41a65e93-00f0-378f-0000-000000000000</groupId>
<id>448bd91c-055f-3966-0000-000000000000</id>
<type>PROCESSOR</type>
                            </destination>
                            <flowFileExpiration>0 sec</flowFileExpiration>
                            <labelIndex>1</labelIndex>
                            <loadBalanceCompression>DO_NOT_COMPRESS</loadBalanceCompression>
                            <loadBalancePartitionAttribute></loadBalancePartitionAttribute>
                            <loadBalanceStatus>LOAD_BALANCE_NOT_CONFIGURED</loadBalanceStatus>
                            <loadBalanceStrategy>DO_NOT_LOAD_BALANCE</loadBalanceStrategy>
                            <name>High Risk Transaction</name>
                            <selectedRelationships>HighRisk</selectedRelationships>
                            <source>
<groupId>41a65e93-00f0-378f-0000-000000000000</groupId>
<id>51b8fa93-5586-3192-0000-000000000000</id>
<type>PROCESSOR</type>
                            </source>
                            <zIndex>0</zIndex>
                        </connections>
                        <connections>
                            <id>bfd07f26-f38f-3d3d-0000-000000000000</id>
                            <parentGroupId>41a65e93-00f0-378f-0000-000000000000</parentGroupId>
                            <backPressureDataSizeThreshold>1 GB</backPressureDataSizeThreshold>
                            <backPressureObjectThreshold>10000</backPressureObjectThreshold>
                            <destination>
<groupId>41a65e93-00f0-378f-0000-000000000000</groupId>
<id>6c090f4f-32e7-3c3b-0000-000000000000</id>
<type>PROCESSOR</type>
                            </destination>
                            <flowFileExpiration>0 sec</flowFileExpiration>
                            <labelIndex>1</labelIndex>
                            <loadBalanceCompression>DO_NOT_COMPRESS</loadBalanceCompression>
                            <loadBalancePartitionAttribute></loadBalancePartitionAttribute>
                            <loadBalanceStatus>LOAD_BALANCE_NOT_CONFIGURED</loadBalanceStatus>
                            <loadBalanceStrategy>DO_NOT_LOAD_BALANCE</loadBalanceStrategy>
                            <name></name>
                            <selectedRelationships>success</selectedRelationships>
                            <source>
<groupId>41a65e93-00f0-378f-0000-000000000000</groupId>
<id>1d165030-73af-3984-0000-000000000000</id>
<type>PROCESSOR</type>
                            </source>
                            <zIndex>0</zIndex>
                        </connections>
                        <processors>
                            <id>1d165030-73af-3984-0000-000000000000</id>
                            <parentGroupId>41a65e93-00f0-378f-0000-000000000000</parentGroupId>
                            <position>
<x>-330.9268052842883</x>
<y>-479.6016701592339</y>
                            </position>
                            <bundle>
<artifact>nifi-standard-nar</artifact>
<group>org.apache.nifi</group>
<version>1.9.0.3.4.0.0-155</version>
                            </bundle>
                            <config>
<bulletinLevel>WARN</bulletinLevel>
<comments></comments>
<concurrentlySchedulableTaskCount>1</concurrentlySchedulableTaskCount>
<descriptors>
    <entry>
        <key>File Size</key>
        <value>
            <name>File Size</name>
        </value>
    </entry>
    <entry>
        <key>Batch Size</key>
        <value>
            <name>Batch Size</name>
        </value>
    </entry>
    <entry>
        <key>Data Format</key>
        <value>
            <name>Data Format</name>
        </value>
    </entry>
    <entry>
        <key>Unique FlowFiles</key>
        <value>
            <name>Unique FlowFiles</name>
        </value>
    </entry>
    <entry>
        <key>generate-ff-custom-text</key>
        <value>
            <name>generate-ff-custom-text</name>
        </value>